Version 4
SHEET 1 1368 760
WIRE -224 -512 -368 -512
WIRE -224 -480 -224 -512
WIRE -368 -352 -368 -432
WIRE 80 -352 -368 -352
WIRE -192 -320 -416 -320
WIRE -80 -320 -192 -320
WIRE 80 -320 80 -352
WIRE 80 -320 -80 -320
WIRE 240 -320 80 -320
WIRE 336 -320 240 -320
WIRE -80 -256 -80 -320
WIRE 240 -256 240 -320
WIRE -192 -208 -192 -320
WIRE -80 -208 -192 -208
WIRE 336 -208 336 -320
WIRE 336 -208 240 -208
WIRE 96 -176 -32 -176
WIRE 192 -176 96 -176
WIRE -416 -112 -416 -320
WIRE 240 -96 240 -160
WIRE -80 -64 -80 -160
WIRE 96 -64 96 -176
WIRE 96 -64 -80 -64
WIRE 240 -48 240 -96
WIRE 240 -48 208 -48
WIRE -80 0 -80 -64
WIRE -48 0 -80 0
WIRE 208 0 208 -48
WIRE 32 48 -48 48
WIRE 208 48 112 48
WIRE -176 80 -256 80
WIRE -96 80 -176 80
WIRE 320 80 256 80
WIRE 368 80 320 80
WIRE -256 112 -256 80
WIRE 368 112 368 80
WIRE -48 176 -48 96
WIRE 16 176 -48 176
WIRE 32 176 32 48
WIRE 32 176 16 176
WIRE 112 176 112 48
WIRE 112 176 32 176
WIRE 208 176 208 96
WIRE 208 176 112 176
WIRE 16 320 16 176
WIRE -416 336 -416 -32
WIRE -368 336 -416 336
WIRE 112 368 16 368
WIRE -416 384 -512 384
WIRE -368 416 -368 336
WIRE -32 416 -32 400
WIRE -32 416 -368 416
WIRE 112 416 112 368
WIRE 112 416 16 416
WIRE -512 432 -512 384
WIRE -416 432 -512 432
WIRE 272 496 160 496
WIRE 272 512 272 496
WIRE -416 528 -416 432
WIRE 16 528 16 416
WIRE 16 528 -416 528
WIRE 160 528 160 496
WIRE 160 528 16 528
FLAG -256 192 0
FLAG 368 192 0
FLAG -176 80 Vin1
IOPIN -176 80 In
FLAG 320 80 Vin2
IOPIN 320 80 In
FLAG -224 -480 0
FLAG 240 -96 Vout
IOPIN 240 -96 Out
FLAG 272 592 0
SYMBOL voltage -256 96 R0
WINDOW 123 24 124 Left 2
WINDOW 39 0 0 Left 0
SYMATTR Value2 AC 1
SYMATTR InstName V1
SYMATTR Value SINE(0 10m 1k)
SYMBOL voltage 368 96 R0
WINDOW 123 24 124 Left 2
WINDOW 39 0 0 Left 0
SYMATTR Value2 AC 1
SYMATTR InstName V2
SYMATTR Value SINE(0 10m 1k 0 0)
SYMBOL voltage -368 -416 R180
WINDOW 0 24 96 Left 2
WINDOW 3 24 16 Left 2
WINDOW 123 0 0 Left 0
WINDOW 39 0 0 Left 0
SYMATTR InstName V3
SYMATTR Value 1
SYMBOL voltage 272 608 R180
WINDOW 0 24 96 Left 2
WINDOW 3 24 16 Left 2
WINDOW 123 0 0 Left 0
WINDOW 39 0 0 Left 0
SYMATTR InstName V4
SYMATTR Value 1V
SYMBOL res -432 -128 R0
SYMATTR InstName R1
SYMATTR Value 10k
SYMBOL nmos4 -96 0 R0
SYMATTR InstName M3
SYMATTR Value2 l=500n w=3u
SYMBOL nmos4 256 0 M0
SYMATTR InstName M4
SYMATTR Value2 l=500n w=3u
SYMBOL nmos4 -32 320 R0
SYMATTR InstName M6
SYMATTR Value2 l=500n w=6u
SYMBOL nmos4 -368 336 M0
SYMATTR InstName M5
SYMATTR Value2 l=500n w=6u
SYMBOL pmos4 -32 -256 M0
SYMATTR InstName M1
SYMATTR Value2 l=500n w=9u
SYMBOL pmos4 192 -256 R0
SYMATTR InstName M2
SYMATTR Value2 l=500n w=9u
TEXT 296 -392 Left 2 !.lib C:\\Users\\US\\OneDrive\\Documents\\LTspiceXVII\\lib\\45m.txt
TEXT 464 -240 Left 2 !.ac dec 10 1 500Meg
